3
Coordinates from ORCA-job CO2 E -187.685715395103
  C       0.000000      0.000000      0.000000
  O       0.000000      0.000000      1.155028
  O       0.000000      0.000000     -1.155028
3
Coordinates from ORCA-job CO2 E -187.687589940978
  C       0.000000     -0.000000      0.000000
  O      -0.000000      0.000000      1.135530
  O      -0.000000      0.000000     -1.135530
3
Coordinates from ORCA-job CO2 E -187.687590364248
  C      -0.000000      0.000000      0.000000
  O       0.000000     -0.000000      1.135219
  O       0.000000     -0.000000     -1.135219
3
Coordinates from ORCA-job CO2 E -187.687590366136
  C       0.000000     -0.000000     -0.000000
  O      -0.000000      0.000000      1.135239
  O      -0.000000      0.000000     -1.135239
