%nprocshared=12
%chk=c2h5oh.chk
#p opt=tight freq hf/6-311++g(d,p) geom=connectivity

Title Card Required

0 1
 C              
 H                  1            B1
 H                  1            B2    2            A1
 C                  1            B3    2            A2    3            D1    0
 H                  4            B4    1            A3    2            D2    0
 H                  4            B5    1            A4    2            D3    0
 H                  4            B6    1            A5    2            D4    0
 O                  1            B7    4            A6    7            D5    0
 H                  8            B8    1            A7    4            D6    0

   B1             1.07000000
   B2             1.07000000
   B3             1.54000000
   B4             1.07000000
   B5             1.07000000
   B6             1.07000000
   B7             1.43000000
   B8             0.96000000
   A1           109.47123134
   A2           109.47120254
   A3           109.47120255
   A4           109.47120255
   A5           109.47123134
   A6           109.47125080
   A7           109.50000006
   D1           119.99999260
   D2            59.98890001
   D3           179.98891480
   D4           -60.01109260
   D5           179.98892215
   D6           179.88888524

 1 2 1.0 3 1.0 4 1.0 8 1.0
 2
 3
 4 5 1.0 6 1.0 7 1.0
 5
 6
 7
 8 9 1.0
 9

