8
Coordinates from ORCA-job CH3COOH E -227.875445476324
  C       0.000000      0.158043      0.000000
  O       0.194257      1.345976      0.000000
  O      -1.245146     -0.377942      0.000000
  H      -1.859053      0.371753      0.000000
  C       1.057005     -0.916388      0.000000
  H       2.044007     -0.456680      0.000000
  H       0.940063     -1.554642      0.880447
  H       0.940063     -1.554642     -0.880447
8
Coordinates from ORCA-job CH3COOH E -227.877878784101
  C      -0.000617      0.152803      0.000021
  O       0.188214      1.319187      0.000022
  O      -1.231966     -0.365065     -0.000018
  H      -1.834781      0.361493     -0.000022
  C       1.052884     -0.912862      0.000002
  H       2.031011     -0.455880     -0.000024
  H       0.933247     -1.542093      0.874339
  H       0.933204     -1.542105     -0.874320
8
Coordinates from ORCA-job CH3COOH E -227.877943571863
  C      -0.000141      0.153195     -0.000081
  O       0.191769      1.318035     -0.000016
  O      -1.229290     -0.362347      0.000024
  H      -1.842011      0.358545      0.000062
  C       1.053754     -0.913086     -0.000008
  H       2.032034     -0.456529      0.000044
  H       0.932489     -1.541164      0.875142
  H       0.932591     -1.541172     -0.875167
8
Coordinates from ORCA-job CH3COOH E -227.877963640662
  C       0.000229      0.154595      0.000386
  O       0.196644      1.319268     -0.000015
  O      -1.227091     -0.360223     -0.000057
  H      -1.847836      0.353397     -0.000266
  C       1.053990     -0.913374      0.000045
  H       2.032484     -0.457177     -0.000152
  H       0.931589     -1.540560      0.875930
  H       0.931187     -1.540448     -0.875870
8
Coordinates from ORCA-job CH3COOH E -227.877963164815
  C       0.000267      0.154846     -0.001445
  O       0.197387      1.319586     -0.000210
  O      -1.226941     -0.360090      0.000378
  H      -1.848402      0.352813      0.001087
  C       1.053881     -0.913497     -0.000156
  H       2.032262     -0.457058      0.000748
  H       0.930496     -1.540466      0.875704
  H       0.932246     -1.540656     -0.876106
8
Coordinates from ORCA-job CH3COOH E -227.877964016774
  C       0.000271      0.154916      0.000073
  O       0.197560      1.319677     -0.000059
  O      -1.226942     -0.360088      0.000027
  H      -1.848481      0.352725     -0.000034
  C       1.053838     -0.913533      0.000010
  H       2.032159     -0.456957      0.000009
  H       0.931408     -1.540665      0.875849
  H       0.931383     -1.540597     -0.875876
