12
Coordinates from ORCA-job benzene E -230.754097683013
  H           1.20720683588658     -0.16352094686399      2.13831124525484
  C           0.67959761149658     -0.09205875106743      1.20370464112454
  C          -0.70456383769908     -0.03509584993939      1.19230620765660
  H          -1.25163396632150     -0.06232936973059      2.11801616060306
  C          -1.38414092892847      0.05694536601339     -0.01140539244647
  H          -2.45882086200410      0.10117267798813     -0.02026192864047
  C          -0.67959053565350      0.09202499460224     -1.20373439905923
  H          -1.20724098504122      0.16348837403767     -2.13831617847051
  C           0.70455313586437      0.03506195662641     -1.19232239074336
  H           1.25156655016478      0.06229796185238     -2.11806737500753
  C           1.38414421684313     -0.05697955364672      0.01139692753527
  H           2.45882276539243     -0.10120685987209      0.02027248219326
