12
Coordinates from ORCA-job benzene E -230.752394727087
  H       1.219400     -0.165200      2.160000
  C       0.682500     -0.092400      1.208700
  C      -0.707500     -0.035200      1.197300
  H      -1.264400     -0.063000      2.139300
  C      -1.389800      0.057200     -0.011400
  H      -2.483600      0.102100     -0.020400
  C      -0.682400      0.092500     -1.208800
  H      -1.219400      0.165200     -2.159900
  C       0.707500      0.035200     -1.197300
  H       1.264100      0.062800     -2.139500
  C       1.389900     -0.057200      0.011400
  H       2.483600     -0.102200      0.020500
12
Coordinates from ORCA-job benzene E -230.754093010419
  H       1.206850     -0.163476      2.137732
  C       0.679781     -0.092082      1.203965
  C      -0.704710     -0.035107      1.192583
  H      -1.251341     -0.062315      2.117397
  C      -1.384397      0.056960     -0.011387
  H      -2.458087      0.101144     -0.020228
  C      -0.679738      0.092043     -1.204024
  H      -1.206910      0.163455     -2.137733
  C       0.704705      0.035069     -1.192587
  H       1.251168      0.062266     -2.117507
  C       1.384444     -0.056993      0.011393
  H       2.458134     -0.101163      0.020298
12
Coordinates from ORCA-job benzene E -230.754097667072
  H       1.207236     -0.163525      2.138385
  C       0.679632     -0.092061      1.203740
  C      -0.704581     -0.035098      1.192348
  H      -1.251691     -0.062332      2.118068
  C      -1.384167      0.056946     -0.011399
  H      -2.458879      0.101174     -0.020254
  C      -0.679611      0.092029     -1.203780
  H      -1.207280      0.163498     -2.138384
  C       0.704573      0.035062     -1.192361
  H       1.251585      0.062296     -2.118143
  C       1.384186     -0.056981      0.011395
  H       2.458895     -0.101208      0.020285
12
Coordinates from ORCA-job benzene E -230.754097683013
  H       1.207207     -0.163521      2.138311
  C       0.679598     -0.092059      1.203705
  C      -0.704564     -0.035096      1.192306
  H      -1.251634     -0.062329      2.118016
  C      -1.384141      0.056945     -0.011405
  H      -2.458821      0.101173     -0.020262
  C      -0.679591      0.092025     -1.203734
  H      -1.207241      0.163488     -2.138316
  C       0.704553      0.035062     -1.192322
  H       1.251567      0.062298     -2.118067
  C       1.384144     -0.056980      0.011397
  H       2.458823     -0.101207      0.020272
