%nprocshared=12
%chk=ch3och3.chk
#p opt=tight freq hf/6-311++g(d,p) geom=connectivity

Title Card Required

0 1
 O              
 C                  1            B1
 H                  2            B2    1            A1
 H                  2            B3    1            A2    3            D1    0
 H                  2            B4    1            A3    4            D2    0
 C                  1            B5    2            A4    5            D3    0
 H                  6            B6    1            A5    2            D4    0
 H                  6            B7    1            A6    2            D5    0
 H                  6            B8    1            A7    2            D6    0

   B1             1.43000000
   B2             1.07000000
   B3             1.07000000
   B4             1.07000000
   B5             1.43000000
   B6             1.07000000
   B7             1.07000000
   B8             1.07000000
   A1           109.47120255
   A2           109.47120255
   A3           109.47123134
   A4           109.50000006
   A5           109.47120255
   A6           109.47120255
   A7           109.47123134
   D1           120.00001480
   D2           119.99999260
   D3            59.99994863
   D4           180.00000000
   D5           -60.00007559
   D6            59.99991702

 1 2 1.0 6 1.0
 2 3 1.0 4 1.0 5 1.0
 3
 4
 5
 6 7 1.0 8 1.0 9 1.0
 7
 8
 9

